<?xml version="1.0" encoding="UTF-8"?>

<!-- generated on Thu 11 Mar 2021 16:39:16 by Eclipse SUMO netedit Version v1_8_0+1611-230a699a21
<configuration xmlns:xsi="http://www.w3.org/2001/XMLSchema-instance" xsi:noNamespaceSchemaLocation="http://sumo.dlr.de/xsd/netconvertConfiguration.xsd">

    <input>
        <sumo-net-file value="/home/seanh/Code/sumoTutorials/helloWorld/helloWorld.net.xml"/>
    </input>

    <output>
        <output-file value="/home/seanh/Code/sumoTutorials/helloWorld/helloWorld.net.xml"/>
    </output>

    <processing>
        <geometry.min-radius.fix.railways value="false"/>
        <geometry.max-grade.fix value="false"/>
        <offset.disable-normalization value="true"/>
        <lefthand value="false"/>
    </processing>

    <junctions>
        <no-turnarounds value="true"/>
        <junctions.corner-detail value="5"/>
        <junctions.limit-turn-speed value="5.5"/>
        <rectangular-lane-cut value="false"/>
    </junctions>

    <pedestrian>
        <walkingareas value="false"/>
    </pedestrian>

    <netedit>
        <route-files value="/home/seanh/Code/sumoTutorials/helloWorld/2x4_intersection.rou.xml"/>
    </netedit>

    <report>
        <aggregate-warnings value="5"/>
    </report>

</configuration>
-->

<routes>
    <route edges="road_hrz_1 road_hrz_2" color="yellow" id="route_0"/>
    <route edges="road_hrz_1 road_ver_2" color="yellow" id="route_1"/>
    <route edges="road_hrz_3 road_hrz_4" color="yellow" id="route_2"/>
    <route edges="road_hrz_3 road_ver_4" color="yellow" id="route_3"/>
    <route edges="road_ver_1 road_ver_2" color="yellow" id="route_4"/>
    <route edges="road_ver_1 road_hrz_4" color="yellow" id="route_5"/>
    <route edges="road_ver_3 road_ver_4" color="yellow" id="route_6"/>
    <route edges="road_ver_3 road_hrz_2" color="yellow" id="route_7"/>
</routes>
